93
Lattice="14.276 0.0 0.0 0.0 12.0 0.0 0.0 0.0 14.0" Properties=species:S:1:pos:R:3 Anthracene=T pbc="T T T"
C        6.70419837       5.97003012       6.26720026
C        6.69201721       5.98154668       7.71955981
C        5.47217789       5.98700240       8.39836311
C        4.30015110       5.98147116       7.69186906
C        5.49458603       5.96457942       5.57057816
C        4.31153847       5.97009937       6.25776194
C        3.04830359       5.98754384       8.44823958
C        1.80843366       5.98145582       7.67100969
C        3.07223581       5.96400935       5.48028486
C        1.82029431       5.97008470       6.23699107
C        0.62568672       5.98697888       8.35858735
C        0.64831686       5.96455764       5.53102444
H        5.43407024       5.99564546       9.48812450
H        5.47214379       5.95593982       4.48079365
H        3.03882082       5.99573604       9.48135624
H        3.08134856       5.95581431       4.44680689
H        0.64581235       5.99562097       9.44866806
H        0.68522595       5.95591544       4.44136294
C       13.68695624       5.97004506       6.32211865
C       13.67477507       5.98156162       7.77447820
C       12.45493576       5.98701734       8.45328151
C       11.28290896       5.98148610       7.74678745
C       12.47734389       5.96459436       5.62549656
C       11.29429634       5.97011431       6.31268033
H       12.41682810       5.99566040       9.54304289
H       12.45490166       5.95595476       4.53571204
O        7.91129423       5.96289715       5.37676849
O        7.88643119       5.98710015       8.42902749
O       10.20146444       5.96297530       5.40401786
O       10.07739834       5.98703326       8.43723178
Ni       8.99857780       5.97558648       6.98538697
C        6.64086161      10.01857566       6.29549373
C        6.62868044      10.03009222       7.74785328
C        5.40884113      10.03554794       8.42665659
C        4.23681433      10.03001670       7.72016253
C        5.43124926      10.01312496       5.59887164
C        4.24820171      10.01864491       6.28605541
C        2.98496683      10.03608938       8.47653306
C        1.74509690      10.03000136       7.69930317
C        3.00889904      10.01255490       5.50857834
C        1.75695755      10.01863025       6.26528454
C        0.56234996      10.03552442       8.38688083
C        0.58498009      10.01310318       5.55931792
H        5.37073348      10.04419101       9.51641798
H        5.40880703      10.00448536       4.50908712
H        2.97548405      10.04428158       9.50964972
H        3.01801180      10.00435985       4.47510036
H        0.58247559      10.04416651       9.47696154
H        0.62188919      10.00446099       4.46965642
C       13.62361948      10.01859060       6.35041212
C       13.61143831      10.03010716       7.80277168
C       12.39159899      10.03556288       8.48157498
C       11.21957220      10.03003164       7.77508093
C       12.41400713      10.01313990       5.65379003
C       11.23095957      10.01865985       6.34097380
H       12.35349134      10.04420594       9.57133637
H       12.39156490      10.00450030       4.56400551
O        7.84795746      10.01144270       5.40506197
O        7.82309443      10.03564569       8.45732096
O       10.13812768      10.01152084       5.43231133
O       10.01406158      10.03557880       8.46552526
Ni       8.93524104      10.02413203       7.01368045
C        6.73089217       1.96993422       6.25450095
C        6.71871101       1.98145078       7.70686050
C        5.49887169       1.98690650       8.38566381
C        4.32684490       1.98137526       7.67916975
C        5.52127983       1.96448352       5.55787885
C        4.33823227       1.97000348       6.24506263
C        3.07499739       1.98744795       8.43554027
C        1.83512747       1.98135992       7.65831039
C        3.09892961       1.96391346       5.46758555
C        1.84698811       1.96998881       6.22429176
C        0.65238052       1.98688298       8.34588804
C        0.67501066       1.96446175       5.51832513
H        5.46076404       1.99554957       9.47542519
H        5.49883760       1.95584392       4.46809434
H        3.06551462       1.99564015       9.46865694
H        3.10804236       1.95571842       4.43410758
H        0.67250615       1.99552507       9.43596875
H        0.71191976       1.95581955       4.42866363
C       13.71365004       1.96994916       6.30941934
C       13.70146887       1.98146572       7.76177889
C       12.48162956       1.98692144       8.44058220
C       11.30960276       1.98139020       7.73408814
C       12.50403770       1.96449846       5.61279725
C       11.32099014       1.97001842       6.29998102
H       12.44352191       1.99556451       9.53034358
H       12.48159546       1.95585886       4.52301273
O        7.93798803       1.96280126       5.36406918
O        7.91312499       1.98700425       8.41632818
O       10.22815824       1.96287940       5.39131855
O       10.10409215       1.98693736       8.42453247
Ni       9.02527160       1.97549059       6.97268766
